&time_control
 run_days                            = 2,
 run_hours                           = 0,
 run_minutes                         = 0,
 run_seconds                         = 0,
 start_year                          = 2009, 2009, 2009,2009, 2009,
 start_month                         = 08, 08, 08, 08, 10,
 start_day                           = 06, 07, 05, 07, 30,
 start_hour                          = 00, 12, 00, 00, 12,
 start_minute                        = 00, 00, 00,00, 00,
 start_second                        = 00, 00, 00,00, 00,
 end_year                            = 2009, 2009, 2009,2009, 2009,
 end_month                           = 08, 08, 08, 08, 11,
 end_day                             = 06, 05, 05, 08, 01,
 end_hour                            = 00, 12, 00, 00, 00,
 end_minute                          = 00, 00, 00,00, 00,
 end_second                          = 00, 00, 00,00, 00,
 interval_seconds                    = 21600
 input_from_file                     = .true.,.true.,.true.,.true.,.true.,
 history_interval                    = 180, 180, 180, 60, 60,
 frames_per_outfile                  = 1000, 1000, 1000,1000, 1,
 restart                             = .false.,
 restart_interval                    = 720,
 io_form_history                     = 2
 io_form_restart                     = 2
 io_form_input                       = 2
 io_form_boundary                    = 2
 debug_level                         = 0
 /

 &tc
 insert_bogus_storm = .true.,
 num_storm = 1,
 remove_storm = .false.,
 latc_loc = 23.0,
 lonc_loc = 127.8,
 vmax_meters_per_second = 33.0,
 rmax = 50000,
 vmax_ratio = 0.90,
 /

 &domains
 time_step                           = 108,
 time_step_fract_num                 = 0,
 time_step_fract_den                 = 1,
 max_dom                             = 1,
 s_we                                = 1,     1,       1,       1,       1,
 e_we                                = 311,505,208,
 s_sn                                = 1,     1,       1,       1,       1,
 e_sn                                = 256,343,295,
 s_vert                              = 1,     1,       1,       1,       1,
 e_vert                              = 28,    28,     28,    28,     38,
 num_metgrid_levels                  = 27
 dx                                  = 18000, 6000,2000,1000,
 dy                                  = 18000, 6000,2000,1000,
 grid_id                             = 1,     2,     3,4,5,
 parent_id                           = 0,     1,     2,3,4,
 i_parent_start                      = 0,80,127,95,313,64,60,51,
 j_parent_start                      = 0,80,139,79,273,62,112,
 parent_grid_ratio                   = 1,     3,     3, 3,      3,
 parent_time_step_ratio              = 1,     3,     3, 3,      3,
 p_top_requested                     = 5000.
 feedback                            = 1
 smooth_option                       = 1
 /

 &physics
 mp_physics                          = 5,     5,    5,     5,    5,
 ra_lw_physics                       = 1,     1,    1,     1,    1,
 ra_sw_physics                       = 1,     1,    1,     1,    1,
 radt                                = 70,   50,   30,    10,   5,
 sf_sfclay_physics                   = 1,     1,    1,      1,    1,
 sf_surface_physics                  = 2,     2,    2,     2,    2,
 bl_pbl_physics                      = 1,     1,    1,    1,    1,
 bldt                                = 0,     0,    0,    0,    0, 
 cu_physics                          = 2,     2,    2,    2,    2,
 cudt                                = 50,    30,   10,    4,   2,
 isfflx                              = 1,
 ifsnow                              = 0,
 icloud                              = 1,
 surface_input_source                = 1,
 num_soil_layers                     = 4,
 mp_zero_out                         = 0,
 maxiens                             = 1,
 maxens                              = 3,
 maxens2                             = 3,
 maxens3                             = 16,
 ensdim                              = 144,
 /

 &fdda
 /

 &dynamics
 w_damping                           = 0,
 diff_opt                            = 1,
 km_opt                              = 4,
 diff_6th_opt                        = 0,
 diff_6th_factor                     = 0.12,
 base_temp                           = 290.
 damp_opt                            = 0,
 zdamp                               = 5000.,  5000.,  5000.,  5000.,  5000.,
 dampcoef                            = 0.01,   0.01,    0.01,  0.01,    0.01,
 khdif                               = 0,      0,      0,    0,      0,
 kvdif                               = 0,      0,      0,     0,      0,
 non_hydrostatic                     = .true., .true., .true., .true., .true.,
 moist_adv_opt                       = 1,      1,      1, 1,
 scalar_adv_opt                      = 1,      1,      1, 1,
 /

 &bdy_control
 spec_bdy_width                      = 5,
 spec_zone                           = 1,
 relax_zone                          = 4,
 specified                           = .true., .false., .false., .false., .false.,
 nested                              = .false., .true., .true., .true., .true.,
 /

 &grib2
 /

 &namelist_quilt
 nio_tasks_per_group = 0,
 nio_groups = 1,
 /
