&time_control
 run_days                            = 3,
 run_hours                           = 0,
 run_minutes                         = 0,
 run_seconds                         = 0,
 start_year                          = 2004,2004,2004,
 start_month                         = 09, 09, 09,
 start_day                           = 25, 25, 25,
 start_hour                          = 12, 12, 12,
 start_minute                        = 00, 00, 00, 00, 00,
 start_second                        = 00, 00, 00, 00, 00,
 end_year                            = 2004, 2004, 2004,
 end_month                           = 09, 09, 09,
 end_day                             = 28,  28, 28,
 end_hour                            = 12, 12,12,
 end_minute                          = 00, 00, 00,00, 00,
 end_second                          = 00, 00, 00,00, 00,
 interval_seconds                    = 21600
 input_from_file                     = .true.,.true.,.true.,.true.,.true.,
 fine_input_stream                   = 0,0,0,
 history_interval                    = 60, 60, 60, 60, 60,
 frames_per_outfile                  = 1, 1, 1,1000, 1,
 restart                             = .false.,
 restart_interval                    = 36990,
 io_form_history                     = 2
 io_form_restart                     = 2
 io_form_input                       = 2
 io_form_boundary                    = 2
 debug_level                         = 0
 /

 &tc
 insert_bogus_storm = .true.,
 num_storm = 1,
 remove_storm = .false.,
 latc_loc = 24.5,
 lonc_loc = 129.2,
 vmax_meters_per_second = 56.6,
 rmax = 20000.0,
 vmax_ratio = 1.0,
 /

  &domains
 time_step                           = 68,
 time_step_fract_num                 = 0,
 time_step_fract_den                 = 1,
 max_dom                             = 1,
 s_we                                = 1,     1,       1,       1,       1,
 e_we                                = 466,
 s_sn                                = 1,    1,       1,        1,       1,
 e_sn                                = 457,
 s_vert                              = 1,     1,       1,       1,       1,
 e_vert                              = 38,    38,     38,    28,     38,
 num_metgrid_levels                  = 32,
 dx                                  = 6000,2000,1000,
 dy                                  = 6000,2000,1000,
 grid_id                             = 1,     2,     3,4,5,
 parent_id                           = 0,     1,     2,3,4,
 i_parent_start                      = 0,108,127,95,313,64,60,51,
 j_parent_start                      = 0,116,139,79,273,62,112,
 parent_grid_ratio                   = 1,     3,     3, 3,      3,
 parent_time_step_ratio              = 1,     3,     3, 3,      3,
 p_top_requested                     = 5000.
 feedback                            = 1
 smooth_option                       = 1
 num_metgrid_soil_levels             = 2,
 /

 &physics
 mp_physics                          = 5,     2,    5,     5,    5,
 ra_lw_physics                       = 1,     1,    1,     1,    1,
 ra_sw_physics                       = 1,     1,    1,     1,    1,
 radt                                = 70,   50,   30,    10,   5,
 sf_sfclay_physics                   = 1,     1,    1,      1,    1,
 sf_surface_physics                  = 2,     2,    2,     2,    2,
 bl_pbl_physics                      = 1,     1,    1,    1,    1,
 bldt                                = 0,     0,    0,    0,    0,
 cu_physics                          = 2,     1,    2,    2,    2,
 cudt                                = 50,    30,   10,    4,   2,
 isfflx                              = 1,
 ifsnow                              = 0,
 icloud                              = 1,
 surface_input_source                = 1,
 num_soil_layers                     = 4,
 mp_zero_out                         = 0,
 maxiens                             = 1,
 maxens                              = 3,
 maxens2                             = 3,
 maxens3                             = 16,
 ensdim                              = 144,
 /

 &fdda
 /

 &dynamics
 w_damping                           = 0,
 diff_opt                            = 1,
 km_opt                              = 4,
 diff_6th_opt                        = 0,
 diff_6th_factor                     = 0.12,
 base_temp                           = 290.
 damp_opt                            = 0,
 zdamp                               = 5000.,  5000.,  5000.,  5000.,  5000.,
 dampcoef                            = 0.01,   0.01,    0.01,  0.01,    0.01,
 khdif                               = 0,      0,      0,    0,      0,
 kvdif                               = 0,      0,      0,     0,      0,
 non_hydrostatic                     = .true., .true., .true., .true., .true.,
 moist_adv_opt                       = 1,      1,      1, 1,
 scalar_adv_opt                      = 1,      1,      1, 1,
 /

 &bdy_control
 spec_bdy_width                      = 5,
 spec_zone                           = 1,
 relax_zone                          = 4,
 specified                           = .true., .false., .false., .false., .false.,
 nested                              = .false., .true., .true., .true., .true.,
 /

 &grib2
 /

 &namelist_quilt
 nio_tasks_per_group = 0,
 nio_groups = 1,
 /

